LAMMPS (29 Oct 2020)
variable        NSTEPS          equal 50000
variable        THERMO_FREQ     equal 10
variable        DUMP_FREQ       equal 10
variable        TEMP            equal 300
variable        PRES            equal 1.0
variable        TAU_T           equal 1.0
variable        TAU_P           equal 5.0

units           metal
boundary        p p p
atom_style      atomic

neighbor	2.0 bin
neigh_modify	every 1

read_data       PTO_C.data
Reading data file ...
  triclinic box = (0.0000000 0.0000000 0.0000000) to (59.370000 59.370000 51.740000) with tilt (0.0000000 0.0000000 0.0000000)
  reading atoms ...
  14625 atoms

mass            1 87.620000
mass            2 207.200000
mass            3 47.867000
mass            4 15.999000
pair_style      deepmd /storage/liushiLab/huyihao/DPMD/L25/new-field-model/phase-diagram/15-15-15/300K_3.956_3.956_D/Sr-dope/PSTO_SS_example/1_DP_potential/compress01.pb

pair_coeff

thermo_style    custom step temp pe ke etotal press vol lx ly lz
thermo          10

#min_style cg
#minimize 1.0e-4 1.0e-6 1000 10000

dump            1 all custom 10 traj/*.lammpstrj id type x y z
dump_modify  1 sort id

velocity        all create 300 539619
fix             1 all npt temp 300 300 1 z 1 1 5

timestep        0.002000
run             50000
  update every 1 steps, delay 10 steps, check yes
Step Temp PotEng KinEng TotEng Press Volume Lx Ly Lz
0          300   -116415.11    567.09011   -115848.02    -20840.72    182372.99        59.37        59.37        51.74
Averages over the last 2501 of 5001 rows, steps 25000 to 50000:
Temp PotEng KinEng TotEng Press Volume Lx Ly Lz
299.933 -115868 566.964 -115301 -9954.73 182665 59.37 59.37 51.8229
Loop time of 2755.89 on 1 procs for 50000 steps with 14625 atoms

write_restart    PTO_C.restart
System init for write_restart ...

Please see the log.cite file for references relevant to this simulation
