LAMMPS (29 Oct 2020)
variable        NSTEPS          equal 25000
variable        THERMO_FREQ     equal 10
variable        DUMP_FREQ       equal 10
variable        TEMP            equal 300
variable        PRES            equal 1.0
variable        TAU_T           equal 1.0
variable        TAU_P           equal 5.0

units           metal
boundary        p p p
atom_style      atomic

neighbor	2.0 bin
neigh_modify	every 1

read_restart       PTO_C.restart
Reading restart file ...
  restart file = 29 Oct 2020, LAMMPS = 29 Oct 2020
  restoring atom style atomic from restart
  triclinic box = (0.0000000 0.0000000 -0.0092215547) to (39.580000 39.580000 59.709222) with tilt (0.0000000 0.0000000 0.0000000)
  restoring pair style deepmd from restart
  7500 atoms
  read_restart CPU = 0.012 seconds

mass            1 87.620000
mass            2 207.200000
mass            3 47.867000
mass            4 15.999000
pair_style      deepmd /storage/liushiLab/huyihao/DPMD/L25/new-field-model/phase-diagram/15-15-15/300K_3.956_3.956_D/Sr-dope/PSTO_SS_example/1_DP_potential/compress01.pb

pair_coeff

thermo_style    custom step temp pe ke etotal press vol lx ly lz
thermo          10

#min_style cg
#minimize 1.0e-4 1.0e-6 1000 10000

dump            1 all custom 10 traj/*.lammpstrj id type x y z
dump_modify  1 sort id

fix             1 all npt temp 300 300 1 z 1 1 5
  fix style: npt, fix ID: 1

timestep        0.002000
run             25000
All restart file global fix info was re-assigned
  update every 1 steps, delay 10 steps, check yes
Step Temp PotEng KinEng TotEng Press Volume Lx Ly Lz
25000    297.25889    -59420.51    288.13953   -59132.371    -6821.788    93553.504        39.58        39.58    59.718443
Averages over the last 1251 of 2501 rows, steps 37500 to 50000:
Temp PotEng KinEng TotEng Press Volume Lx Ly Lz
300.438 -59420 291.221 -59128.7 -8559.24 93563.9 39.58 39.58 59.7251
Loop time of 1139.57 on 1 procs for 25000 steps with 7500 atoms

write_restart    PTO_C.restart.continue
System init for write_restart ...

Please see the log.cite file for references relevant to this simulation
